18
Lattice="2.805997698 0.0 0.0 4.208996546 7.290195867 0.0 0.0 0.0 29.428262579" Properties=species:S:1:pos:R:3:forces:R:3 energy=-115.70171055 pbc="T T T"
C        4.20900000       4.05011000      18.27026000       0.00000000      -0.01479900      -1.89084800
C        5.61200000       6.48017000      18.27026000       0.00000000      -0.01479900      -1.89084800
C        2.80600000       1.62004000      18.27026000       0.00000000      -0.01479900      -1.89084800
O        2.80600000       1.62004000      19.42826000      -0.00000000       0.00743400       2.30023700
O        4.20900000       4.05011000      19.42826000      -0.00000000       0.00743400       2.30023700
O        5.61200000       6.48017000      19.42826000      -0.00000000       0.00743400       2.30023700
Pt       2.80600000       4.86013000      16.87326000      -0.00000000       0.01209200       0.49967200
Pt       1.40300000       2.43007000      16.87326000      -0.00000000       0.01209200       0.49967200
Pt       0.00000000       0.00000000      16.87326000      -0.00000000       0.01209200       0.49967200
Pt       0.00000000       0.00000000      10.00000000       0.00000000      -0.00903100      -0.20152500
Pt       2.80600000       1.62004000      14.58218000       0.00000000       0.00703900      -0.77995400
Pt       4.20900000       5.67015000      12.29109000       0.00000000      -0.00273600       0.07241700
Pt       2.80600000       3.24009000      12.29109000       0.00000000      -0.00273600       0.07241700
Pt       1.40300000       0.81002000      12.29109000       0.00000000      -0.00273600       0.07241700
Pt       2.80600000       4.86013000      10.00000000       0.00000000      -0.00903100      -0.20152500
Pt       1.40300000       2.43007000      10.00000000       0.00000000      -0.00903100      -0.20152500
Pt       4.20900000       4.05011000      14.58218000       0.00000000       0.00703900      -0.77995400
Pt       5.61200000       6.48017000      14.58218000       0.00000000       0.00703900      -0.77995400
18
Lattice="2.805997698 0.0 0.0 4.208996546 7.290195867 0.0 0.0 0.0 29.886262579" Properties=species:S:1:pos:R:3:forces:R:3 energy=-115.73317142 pbc="T T T"
C        4.20900000       4.86013000      18.49926000      -0.00000000       0.06290200      -3.16582800
C        0.00000000       0.00000000      18.72826000       0.00000000       0.47256100       0.22997900
C        1.40300000       2.43007000      18.72826000       0.00000000      -0.40627900       0.20625400
O        1.40300000       2.43007000      19.88626000      -0.00000000      -0.46548500       0.09201300
O        4.20900000       4.86013000      19.65726000      -0.00000000      -0.00523900       1.39494700
O        0.00000000       0.00000000      19.88626000      -0.00000000       0.43636600       0.07855000
Pt       2.80600000       4.86013000      16.87326000       0.00000000      -0.31565500       2.09012600
Pt       1.40300000       2.43007000      16.87326000       0.00000000      -0.15616200       0.30845200
Pt       0.00000000       0.00000000      16.87326000      -0.00000000       0.13281100       0.31358500
Pt       0.00000000       0.00000000      10.00000000      -0.00000000      -0.01452400      -0.23888500
Pt       2.80600000       1.62004000      14.58218000      -0.00000000       0.04183700      -0.29562400
Pt       4.20900000       5.67015000      12.29109000      -0.00000000       0.02472800       0.09097400
Pt       2.80600000       3.24009000      12.29109000      -0.00000000      -0.00215000       0.11515800
Pt       1.40300000       0.81002000      12.29109000      -0.00000000      -0.02586900       0.07292200
Pt       2.80600000       4.86013000      10.00000000      -0.00000000      -0.00769400      -0.21862000
Pt       1.40300000       2.43007000      10.00000000      -0.00000000      -0.00623100      -0.17979600
Pt       4.20900000       4.05011000      14.58218000      -0.00000000       0.02600200      -0.36040300
Pt       5.61200000       6.48017000      14.58218000      -0.00000000       0.20808000      -0.53380100
18
Lattice="2.805997698 0.0 0.0 4.208996546 7.290195867 0.0 0.0 0.0 29.657262579" Properties=species:S:1:pos:R:3:forces:R:3 energy=-113.53979989 pbc="T T T"
C        1.40300000       0.81002000      18.27026000       0.00000000      -0.90737200      -2.41068300
C        4.20900000       4.86013000      18.49926000      -0.00000000       4.00215400      -1.49848500
C        2.80600000       3.24009000      18.27026000       0.00000000      -2.65572100      -2.46326200
O        2.80600000       3.24009000      19.42826000       0.00000000      -3.36224600       2.53623000
O        1.40300000       0.81002000      19.42826000      -0.00000000      -0.20115300       2.54929000
O        4.20900000       4.86013000      19.65726000       0.00000000       2.69890400       0.52405100
Pt       2.80600000       4.86013000      16.87326000       0.00000000       0.67619500       1.85510100
Pt       1.40300000       2.43007000      16.87326000       0.00000000      -0.50677700       0.29497600
Pt       0.00000000       0.00000000      16.87326000      -0.00000000       0.17712600       0.55833800
Pt       0.00000000       0.00000000      10.00000000      -0.00000000      -0.00778000      -0.16249700
Pt       2.80600000       1.62004000      14.58218000      -0.00000000       0.15299500      -0.74810200
Pt       4.20900000       5.67015000      12.29109000      -0.00000000       0.01456400       0.02394800
Pt       2.80600000       3.24009000      12.29109000      -0.00000000      -0.03566200       0.11714200
Pt       1.40300000       0.81002000      12.29109000      -0.00000000      -0.02811200       0.11453600
Pt       2.80600000       4.86013000      10.00000000      -0.00000000      -0.02013700      -0.14076400
Pt       1.40300000       2.43007000      10.00000000      -0.00000000      -0.02701100      -0.22537900
Pt       4.20900000       4.05011000      14.58218000      -0.00000000       0.12502200      -0.57720700
Pt       5.61200000       6.48017000      14.58218000      -0.00000000      -0.09498700      -0.34723300
18
Lattice="2.805997698 0.0 0.0 4.208996546 7.290195867 0.0 0.0 0.0 29.886262579" Properties=species:S:1:pos:R:3:forces:R:3 energy=-116.47363814 pbc="T T T"
C        2.80600000       4.86013000      18.72826000      -0.00000000       0.01176100      -0.18539700
C        0.00000000       0.00000000      18.72826000      -0.00000000       0.01176100      -0.18539700
C        1.40300000       2.43007000      18.72826000      -0.00000000       0.01176100      -0.18539700
O        1.40300000       2.43007000      19.88626000      -0.00000000      -0.00451500       0.28294400
O        2.80600000       4.86013000      19.88626000      -0.00000000      -0.00451500       0.28294400
O        0.00000000       0.00000000      19.88626000      -0.00000000      -0.00451500       0.28294400
Pt       2.80600000       4.86013000      16.87326000       0.00000000      -0.03010700       0.38078000
Pt       1.40300000       2.43007000      16.87326000       0.00000000      -0.03010700       0.38078000
Pt       0.00000000       0.00000000      16.87326000       0.00000000      -0.03010700       0.38078000
Pt       0.00000000       0.00000000      10.00000000      -0.00000000      -0.00709000      -0.22224000
Pt       2.80600000       1.62004000      14.58218000       0.00000000       0.03008600      -0.33799300
Pt       4.20900000       5.67015000      12.29109000      -0.00000000      -0.00013600       0.08190700
Pt       2.80600000       3.24009000      12.29109000      -0.00000000      -0.00013600       0.08190700
Pt       1.40300000       0.81002000      12.29109000      -0.00000000      -0.00013600       0.08190700
Pt       2.80600000       4.86013000      10.00000000      -0.00000000      -0.00709000      -0.22224000
Pt       1.40300000       2.43007000      10.00000000      -0.00000000      -0.00709000      -0.22224000
Pt       4.20900000       4.05011000      14.58218000       0.00000000       0.03008600      -0.33799300
Pt       5.61200000       6.48017000      14.58218000       0.00000000       0.03008600      -0.33799300
18
Lattice="2.805997698 0.0 0.0 4.208996546 7.290195867 0.0 0.0 0.0 29.886262579" Properties=species:S:1:pos:R:3:forces:R:3 energy=-113.48648063 pbc="T T T"
C        1.40300000       0.00000000      18.49926000       0.00000000       2.88109300      -1.84036700
C        4.20900000       5.67015000      18.27026000      -0.00000000      -3.53089700      -2.94046200
C        1.40300000       2.43007000      18.72826000       0.00000000       0.97570700       0.60059600
O        1.40300000       2.43007000      19.88626000       0.00000000       0.74340200      -0.16253000
O        1.40300000       0.00000000      19.65726000       0.00000000       1.92293100       0.66821800
O        4.20900000       5.67015000      19.42826000      -0.00000000      -3.55040300       2.94200800
Pt       2.80600000       4.86013000      16.87326000       0.00000000      -0.32272200       0.30440400
Pt       1.40300000       2.43007000      16.87326000       0.00000000       0.61271100       0.41088300
Pt       0.00000000       0.00000000      16.87326000       0.00000000       0.19784400       1.61301500
Pt       0.00000000       0.00000000      10.00000000       0.00000000       0.01155900      -0.23326300
Pt       2.80600000       1.62004000      14.58218000       0.00000000       0.03642700      -0.30982100
Pt       4.20900000       5.67015000      12.29109000       0.00000000       0.03772300       0.13456200
Pt       2.80600000       3.24009000      12.29109000       0.00000000      -0.04795800       0.07272100
Pt       1.40300000       0.81002000      12.29109000       0.00000000      -0.02662700       0.04541800
Pt       2.80600000       4.86013000      10.00000000       0.00000000      -0.03615900      -0.19977800
Pt       1.40300000       2.43007000      10.00000000       0.00000000      -0.00865800      -0.16740800
Pt       4.20900000       4.05011000      14.58218000       0.00000000      -0.12339900      -0.21083000
Pt       5.61200000       6.48017000      14.58218000       0.00000000       0.22742600      -0.72736600
18
Lattice="2.805997698 0.0 0.0 4.208996546 7.290195867 0.0 0.0 0.0 29.886262579" Properties=species:S:1:pos:R:3:forces:R:3 energy=-115.47155527 pbc="T T T"
C        4.20900000       4.86013000      18.49926000       0.00000000      -0.22792000      -2.77487500
C        0.00000000       0.00000000      18.72826000       0.00000000       0.05386200       0.58998500
C        2.80600000       2.43007000      18.49926000       0.00000000       0.39085600      -2.81736100
O        2.80600000       2.43007000      19.65726000       0.00000000       0.62305600       1.22842900
O        4.20900000       4.86013000      19.65726000      -0.00000000      -0.65280800       1.20262600
O        0.00000000       0.00000000      19.88626000       0.00000000      -0.02317700      -0.09035300
Pt       2.80600000       4.86013000      16.87326000       0.00000000      -0.22504600       2.00554100
Pt       1.40300000       2.43007000      16.87326000       0.00000000      -0.39319800       2.02021900
Pt       0.00000000       0.00000000      16.87326000       0.00000000       0.00289400       0.23926700
Pt       0.00000000       0.00000000      10.00000000       0.00000000      -0.02141900      -0.20136300
Pt       2.80600000       1.62004000      14.58218000       0.00000000       0.05508600      -0.30028300
Pt       4.20900000       5.67015000      12.29109000       0.00000000      -0.00111700       0.08663200
Pt       2.80600000       3.24009000      12.29109000       0.00000000       0.02549300       0.13771800
Pt       1.40300000       0.81002000      12.29109000       0.00000000      -0.03497000       0.09639500
Pt       2.80600000       4.86013000      10.00000000       0.00000000      -0.01242200      -0.23432700
Pt       1.40300000       2.43007000      10.00000000       0.00000000      -0.00981700      -0.17333100
Pt       4.20900000       4.05011000      14.58218000       0.00000000       0.21738800      -0.53376000
Pt       5.61200000       6.48017000      14.58218000       0.00000000       0.23326100      -0.48115900
18
Lattice="2.805997698 0.0 0.0 4.208996546 7.290195867 0.0 0.0 0.0 29.657262579" Properties=species:S:1:pos:R:3:forces:R:3 energy=-115.70006652 pbc="T T T"
C        2.80600000       2.43007000      18.49926000      -0.00000000       0.09269400      -2.44198000
C        4.20900000       4.86013000      18.49926000      -0.00000000       0.09269400      -2.44198000
C        1.40300000       0.00000000      18.49926000      -0.00000000       0.09269400      -2.44198000
O        1.40300000       0.00000000      19.65726000      -0.00000000      -0.02081600       1.06570700
O        2.80600000       2.43007000      19.65726000      -0.00000000      -0.02081600       1.06570700
O        4.20900000       4.86013000      19.65726000      -0.00000000      -0.02081600       1.06570700
Pt       2.80600000       4.86013000      16.87326000      -0.00000000      -0.30038500       1.93821300
Pt       1.40300000       2.43007000      16.87326000      -0.00000000      -0.30038500       1.93821300
Pt       0.00000000       0.00000000      16.87326000      -0.00000000      -0.30038500       1.93821300
Pt       0.00000000       0.00000000      10.00000000      -0.00000000      -0.01774500      -0.17379200
Pt       2.80600000       1.62004000      14.58218000      -0.00000000       0.26039600      -0.50316200
Pt       4.20900000       5.67015000      12.29109000       0.00000000      -0.01414400       0.11501300
Pt       2.80600000       3.24009000      12.29109000       0.00000000      -0.01414400       0.11501300
Pt       1.40300000       0.81002000      12.29109000       0.00000000      -0.01414400       0.11501300
Pt       2.80600000       4.86013000      10.00000000      -0.00000000      -0.01774500      -0.17379200
Pt       1.40300000       2.43007000      10.00000000      -0.00000000      -0.01774500      -0.17379200
Pt       4.20900000       4.05011000      14.58218000      -0.00000000       0.26039600      -0.50316200
Pt       5.61200000       6.48017000      14.58218000      -0.00000000       0.26039600      -0.50316200
18
Lattice="2.805997698 0.0 0.0 4.208996546 7.290195867 0.0 0.0 0.0 29.657262579" Properties=species:S:1:pos:R:3:forces:R:3 energy=-113.47369255 pbc="T T T"
C        2.80600000       2.43007000      18.49926000      -0.00000000       0.85619800      -2.35250500
C        1.40300000       0.00000000      18.49926000       0.00000000       3.21594400      -1.47896200
C        4.20900000       5.67015000      18.27026000       0.00000000      -3.51532600      -2.80901300
O        4.20900000       5.67015000      19.42826000      -0.00000000      -3.58767900       2.79251200
O        2.80600000       2.43007000      19.65726000      -0.00000000       0.18276700       0.98424600
O        1.40300000       0.00000000      19.65726000      -0.00000000       2.53376900       0.52851200
Pt       2.80600000       4.86013000      16.87326000      -0.00000000      -0.31217900       0.36452900
Pt       1.40300000       2.43007000      16.87326000      -0.00000000       0.21466800       2.10620000
Pt       0.00000000       0.00000000      16.87326000      -0.00000000       0.11956100       1.58355500
Pt       0.00000000       0.00000000      10.00000000      -0.00000000      -0.00424000      -0.17358800
Pt       2.80600000       1.62004000      14.58218000      -0.00000000       0.05411700      -0.34894100
Pt       4.20900000       5.67015000      12.29109000      -0.00000000       0.00307100       0.12591000
Pt       2.80600000       3.24009000      12.29109000      -0.00000000      -0.03441500       0.08458700
Pt       1.40300000       0.81002000      12.29109000      -0.00000000      -0.01310100       0.07388500
Pt       2.80600000       4.86013000      10.00000000      -0.00000000      -0.04379000      -0.19757100
Pt       1.40300000       2.43007000      10.00000000      -0.00000000       0.00011800      -0.13850600
Pt       4.20900000       4.05011000      14.58218000      -0.00000000       0.07554700      -0.42378800
Pt       5.61200000       6.48017000      14.58218000      -0.00000000       0.25497000      -0.72106300
