34
Lattice="5.611995395 0.0 0.0 5.611995395 9.720261156 0.0 0.0 0.0 29.886262579" Properties=species:S:1:pos:R:3:forces:R:3 energy=-201.61899874 pbc="T T T"
C        4.20900000       7.29020000      18.72826000      -0.00000000      -0.00103700       0.06097000
O        4.20900000       7.29020000      19.88626000      -0.00000000       0.00035800      -0.02674500
Pt       4.20900000       7.29020000      16.87326000       0.00000000       0.02776600       1.03955000
Pt       5.61200000       4.86013000      16.87326000       0.22617400      -0.38959400      -0.04831900
Pt       2.80600000       4.86013000      16.87326000      -0.22617400      -0.38959400      -0.04831900
Pt       4.20900000       2.43007000      16.87326000      -0.00000000       0.01770200       0.06105500
Pt       1.40300000       2.43007000      16.87326000      -0.00000000      -0.02691300       0.08514100
Pt       2.80600000       0.00000000      16.87326000      -0.21263400       0.39483000      -0.07132100
Pt       2.80600000       1.62004000      14.58218000       0.01193900      -0.00580900      -0.24079400
Pt       7.01499000       8.91024000      14.58218000      -0.00000000       0.03700800      -0.16811200
Pt       9.82099000       8.91024000      14.58218000       0.00000000      -0.15389800      -0.14852700
Pt       5.61200000       6.48017000      14.58218000      -0.10683500       0.05067900      -0.17033600
Pt       8.41799000       6.48017000      14.58218000       0.10683500       0.05067900      -0.17033600
Pt       4.20900000       4.05011000      14.58218000      -0.00000000      -0.02563000      -0.19818800
Pt       7.01499000       4.05011000      14.58218000       0.00000000       0.04344600      -0.25744100
Pt       7.01499000       7.29020000      16.87326000      -0.00000000      -0.02815700      -0.17418100
Pt       0.00000000       0.00000000      16.87326000       0.21263400       0.39483000      -0.07132100
Pt       0.00000000       0.00000000      10.00000000       0.00140500       0.00787900      -0.05015700
Pt       5.61200000       8.10022000      12.29109000      -0.00674100       0.00631500       0.22762200
Pt       7.01499000       5.67015000      12.29109000      -0.00000000      -0.07514100       0.01734500
Pt       4.20900000       5.67015000      12.29109000      -0.00000000       0.00332300       0.24806100
Pt       5.61200000       3.24009000      12.29109000      -0.01547700       0.00190900       0.20555600
Pt       2.80600000       3.24009000      12.29109000       0.01547700       0.00190900       0.20555600
Pt       4.20900000       0.81002000      12.29109000      -0.00000000       0.07657100       0.13186400
Pt       1.40300000       0.81002000      12.29109000      -0.00000000      -0.01826900       0.18672900
Pt       7.01499000       7.29020000      10.00000000      -0.00000000       0.00401700      -0.04784800
Pt       4.20900000       7.29020000      10.00000000      -0.00000000      -0.01718100      -0.06339300
Pt       5.61200000       4.86013000      10.00000000      -0.05243600      -0.03226500      -0.12436600
Pt       2.80600000       4.86013000      10.00000000       0.05243600      -0.03226500      -0.12436600
Pt       4.20900000       2.43007000      10.00000000      -0.00000000       0.05228600      -0.13212800
Pt       1.40300000       2.43007000      10.00000000      -0.00000000       0.01585800      -0.06992200
Pt       2.80600000       0.00000000      10.00000000      -0.00140500       0.00787900      -0.05015700
Pt       8.41799000       8.10022000      12.29109000       0.00674100       0.00631500       0.22762200
Pt       5.61200000       1.62004000      14.58218000      -0.01193900      -0.00580900      -0.24079400
34
Lattice="5.611995395 0.0 0.0 5.611995395 9.720261156 0.0 0.0 0.0 29.428262579" Properties=species:S:1:pos:R:3:forces:R:3 energy=-201.72597782 pbc="T T T"
C        4.20900000       0.81002000      18.27026000      -0.00000000       0.00863500      -3.33862900
O        4.20900000       0.81002000      19.42826000      -0.00000000       0.00152700       3.09398300
Pt       4.20900000       7.29020000      16.87326000      -0.00000000      -0.38499100      -0.02230600
Pt       5.61200000       4.86013000      16.87326000      -0.00839600      -0.00119900       0.04468400
Pt       2.80600000       4.86013000      16.87326000       0.00839600      -0.00119900       0.04468400
Pt       4.20900000       2.43007000      16.87326000      -0.00000000       0.34743300       0.65923200
Pt       1.40300000       2.43007000      16.87326000      -0.00000000       0.37681700      -0.14465600
Pt       2.80600000       0.00000000      16.87326000      -0.26853500      -0.18713100       0.62408500
Pt       2.80600000       1.62004000      14.58218000      -0.06697000       0.04139900      -0.43872800
Pt       7.01499000       8.91024000      14.58218000      -0.00000000       0.09452600      -0.06034600
Pt       9.82099000       8.91024000      14.58218000      -0.00000000      -0.09719500      -0.48597100
Pt       5.61200000       6.48017000      14.58218000      -0.00202900      -0.01183400      -0.28105700
Pt       8.41799000       6.48017000      14.58218000       0.00202900      -0.01183400      -0.28105700
Pt       4.20900000       4.05011000      14.58218000      -0.00000000      -0.10952000      -0.11418600
Pt       7.01499000       4.05011000      14.58218000      -0.00000000       0.01380200      -0.23132000
Pt       7.01499000       7.29020000      16.87326000      -0.00000000       0.03706900      -0.00790600
Pt       0.00000000       0.00000000      16.87326000       0.26853500      -0.18713100       0.62408500
Pt       0.00000000       0.00000000      10.00000000      -0.02362900      -0.00546500      -0.05351100
Pt       5.61200000       8.10022000      12.29109000      -0.06469000      -0.06654600       0.11101600
Pt       7.01499000       5.67015000      12.29109000      -0.00000000      -0.00353000       0.19905000
Pt       4.20900000       5.67015000      12.29109000      -0.00000000       0.13747400       0.13842500
Pt       5.61200000       3.24009000      12.29109000      -0.00279600       0.03512400       0.20255400
Pt       2.80600000       3.24009000      12.29109000       0.00279600       0.03512400       0.20255400
Pt       4.20900000       0.81002000      12.29109000      -0.00000000       0.00400500       0.24731900
Pt       1.40300000       0.81002000      12.29109000      -0.00000000      -0.07080200       0.16635200
Pt       7.01499000       7.29020000      10.00000000      -0.00000000      -0.00359900      -0.05133200
Pt       4.20900000       7.29020000      10.00000000      -0.00000000       0.00691800      -0.21914900
Pt       5.61200000       4.86013000      10.00000000      -0.00955400       0.01607500      -0.05901600
Pt       2.80600000       4.86013000      10.00000000       0.00955400       0.01607500      -0.05901600
Pt       4.20900000       2.43007000      10.00000000      -0.00000000      -0.00509300      -0.07369100
Pt       1.40300000       2.43007000      10.00000000      -0.00000000       0.00568100      -0.05492100
Pt       2.80600000       0.00000000      10.00000000       0.02362900      -0.00546500      -0.05351100
Pt       8.41799000       8.10022000      12.29109000       0.06469000      -0.06654600       0.11101600
Pt       5.61200000       1.62004000      14.58218000       0.06697000       0.04139900      -0.43872800
34
Lattice="5.611995395 0.0 0.0 5.611995395 9.720261156 0.0 0.0 0.0 29.657262579" Properties=species:S:1:pos:R:3:forces:R:3 energy=-201.55640735 pbc="T T T"
C        5.61200000       7.29020000      18.49926000      -0.00000000       0.05375100      -3.11667400
O        5.61200000       7.29020000      19.65726000      -0.00000000      -0.01776500       1.53375900
Pt       4.20900000       7.29020000      16.87326000       0.28507900      -0.09817500       1.35766600
Pt       5.61200000       4.86013000      16.87326000       0.00000000      -0.53961500       0.03431500
Pt       2.80600000       4.86013000      16.87326000      -0.00000000      -0.14897600      -0.08711900
Pt       4.20900000       2.43007000      16.87326000      -0.00083100      -0.01317400       0.10319800
Pt       1.40300000       2.43007000      16.87326000       0.00083100      -0.01317400       0.10319800
Pt       2.80600000       0.00000000      16.87326000      -0.00000000       0.23804400      -0.04692700
Pt       2.80600000       1.62004000      14.58218000      -0.00000000       0.02270000      -0.24709600
Pt       7.01499000       8.91024000      14.58218000       0.02602600       0.01931600      -0.30170600
Pt       9.82099000       8.91024000      14.58218000      -0.02602600       0.01931600      -0.30170600
Pt       5.61200000       6.48017000      14.58218000       0.00000000      -0.12159100      -0.58900800
Pt       8.41799000       6.48017000      14.58218000      -0.00000000       0.20299100       0.16437400
Pt       4.20900000       4.05011000      14.58218000       0.01911800       0.00306300      -0.27344400
Pt       7.01499000       4.05011000      14.58218000      -0.01911800       0.00306300      -0.27344400
Pt       7.01499000       7.29020000      16.87326000      -0.28507900      -0.09817500       1.35766600
Pt       0.00000000       0.00000000      16.87326000      -0.00000000       0.55835700      -0.01306700
Pt       0.00000000       0.00000000      10.00000000      -0.00000000       0.00446800      -0.03406200
Pt       5.61200000       8.10022000      12.29109000      -0.00000000       0.02742000       0.22788000
Pt       7.01499000       5.67015000      12.29109000      -0.06644200      -0.05740100       0.10012100
Pt       4.20900000       5.67015000      12.29109000       0.06644200      -0.05740100       0.10012100
Pt       5.61200000       3.24009000      12.29109000       0.00000000       0.03820100       0.22213100
Pt       2.80600000       3.24009000      12.29109000       0.00000000      -0.02725000       0.18074600
Pt       4.20900000       0.81002000      12.29109000      -0.01967100       0.03552200       0.13533200
Pt       1.40300000       0.81002000      12.29109000       0.01967100       0.03552200       0.13533200
Pt       7.01499000       7.29020000      10.00000000      -0.01835200      -0.00485700      -0.03767100
Pt       4.20900000       7.29020000      10.00000000       0.01835200      -0.00485700      -0.03767100
Pt       5.61200000       4.86013000      10.00000000      -0.00000000      -0.05715600      -0.19387300
Pt       2.80600000       4.86013000      10.00000000      -0.00000000      -0.00228900      -0.02623400
Pt       4.20900000       2.43007000      10.00000000       0.02928600       0.03427000      -0.06493100
Pt       1.40300000       2.43007000      10.00000000      -0.02928600       0.03427000      -0.06493100
Pt       2.80600000       0.00000000      10.00000000      -0.00000000       0.01571300      -0.05964400
Pt       8.41799000       8.10022000      12.29109000       0.00000000      -0.04011700       0.25543000
Pt       5.61200000       1.62004000      14.58218000      -0.00000000      -0.04401600      -0.24206000
34
Lattice="5.611995395 0.0 0.0 5.611995395 9.720261156 0.0 0.0 0.0 29.428262579" Properties=species:S:1:pos:R:3:forces:R:3 energy=-201.71052589 pbc="T T T"
C        5.61200000       1.62004000      18.27026000       0.00000000      -0.01591500      -3.33485100
O        5.61200000       1.62004000      19.42826000       0.00000000      -0.00134200       3.07910700
Pt       4.20900000       7.29020000      16.87326000      -0.04002300      -0.03828900       0.08568500
Pt       5.61200000       4.86013000      16.87326000      -0.00000000       0.36310800      -0.06862200
Pt       2.80600000       4.86013000      16.87326000      -0.00000000       0.05017600       0.01892400
Pt       4.20900000       2.43007000      16.87326000      -0.14921400       0.13193100       0.61792600
Pt       1.40300000       2.43007000      16.87326000       0.14921400       0.13193100       0.61792600
Pt       2.80600000       0.00000000      16.87326000      -0.00000000      -0.35950400      -0.22430400
Pt       2.80600000       1.62004000      14.58218000       0.00000000       0.04044500      -0.21727200
Pt       7.01499000       8.91024000      14.58218000      -0.01779900      -0.00598500      -0.25100400
Pt       9.82099000       8.91024000      14.58218000       0.01779900      -0.00598500      -0.25100400
Pt       5.61200000       6.48017000      14.58218000       0.00000000      -0.00606600      -0.27341300
Pt       8.41799000       6.48017000      14.58218000       0.00000000       0.02162700      -0.26793900
Pt       4.20900000       4.05011000      14.58218000      -0.02202600      -0.00871500      -0.23272200
Pt       7.01499000       4.05011000      14.58218000       0.02202600      -0.00871500      -0.23272200
Pt       7.01499000       7.29020000      16.87326000       0.04002300      -0.03828900       0.08568500
Pt       0.00000000       0.00000000      16.87326000       0.00000000      -0.23557700       0.67480800
Pt       0.00000000       0.00000000      10.00000000       0.00000000      -0.04144100      -0.10227200
Pt       5.61200000       8.10022000      12.29109000       0.00000000       0.01132800       0.26736000
Pt       7.01499000       5.67015000      12.29109000       0.01470600       0.05897700       0.14874000
Pt       4.20900000       5.67015000      12.29109000      -0.01470600       0.05897700       0.14874000
Pt       5.61200000       3.24009000      12.29109000       0.00000000       0.03985100       0.20677300
Pt       2.80600000       3.24009000      12.29109000       0.00000000      -0.01345400       0.26405200
Pt       4.20900000       0.81002000      12.29109000       0.01884000      -0.04021600       0.14658900
Pt       1.40300000       0.81002000      12.29109000      -0.01884000      -0.04021600       0.14658900
Pt       7.01499000       7.29020000      10.00000000      -0.04428000       0.02378500      -0.11219400
Pt       4.20900000       7.29020000      10.00000000       0.04428000       0.02378500      -0.11219400
Pt       5.61200000       4.86013000      10.00000000       0.00000000       0.00058300      -0.05488500
Pt       2.80600000       4.86013000      10.00000000       0.00000000       0.00816700      -0.06837200
Pt       4.20900000       2.43007000      10.00000000       0.00734200      -0.00260800      -0.06257400
Pt       1.40300000       2.43007000      10.00000000      -0.00734200      -0.00260800      -0.06257400
Pt       2.80600000       0.00000000      10.00000000       0.00000000       0.00565700      -0.06070400
Pt       8.41799000       8.10022000      12.29109000       0.00000000      -0.07757200       0.08001700
Pt       5.61200000       1.62004000      14.58218000      -0.00000000      -0.02783100      -0.59930300
