10
Lattice="2.805997698 0.0 0.0 2.805997698 4.860130578 0.0 0.0 0.0 29.886262579" Properties=species:S:1:pos:R:3:forces:R:3 energy=-62.37873987 pbc="T T T"
C        1.40300000       2.43007000      18.72826000       0.00000000       0.01741300      -0.14795600
O        1.40300000       2.43007000      19.88626000      -0.00000000      -0.00903700       0.14712400
Pt       0.00000000       0.00000000      10.00000000      -0.00000000      -0.02840900      -0.10220100
Pt       1.40300000       2.43007000      10.00000000      -0.00000000       0.03872500      -0.12153800
Pt       1.40300000       0.81002000      12.29109000      -0.00000000      -0.01398300      -0.03412300
Pt       2.80600000       3.24009000      12.29109000      -0.00000000      -0.00735300       0.24749000
Pt       2.80600000       1.62004000      14.58218000      -0.00000000       0.12902500      -0.29573500
Pt       4.20900000       4.05011000      14.58218000       0.00000000      -0.12688300      -0.09892800
Pt       0.00000000       0.00000000      16.87326000      -0.00000000       0.00878700      -0.41238200
Pt       1.40300000       2.43007000      16.87326000      -0.00000000      -0.00828400       0.81824900
10
Lattice="2.805997698 0.0 0.0 2.805997698 4.860130578 0.0 0.0 0.0 29.428262579" Properties=species:S:1:pos:R:3:forces:R:3 energy=-62.43846503 pbc="T T T"
C        1.40300000       0.81002000      18.27026000      -0.00000000       0.14384700      -2.82433400
O        1.40300000       0.81002000      19.42826000       0.00000000       0.04831600       2.71368100
Pt       0.00000000       0.00000000      10.00000000       0.00000000       0.01424800      -0.05728700
Pt       1.40300000       2.43007000      10.00000000       0.00000000       0.01138200      -0.12173400
Pt       1.40300000       0.81002000      12.29109000       0.00000000       0.04554400       0.10404500
Pt       2.80600000       3.24009000      12.29109000       0.00000000      -0.02567300       0.00443400
Pt       2.80600000       1.62004000      14.58218000       0.00000000       0.10883000      -0.64156700
Pt       4.20900000       4.05011000      14.58218000       0.00000000      -0.07469400      -0.23900200
Pt       0.00000000       0.00000000      16.87326000       0.00000000      -0.37976200       0.71703100
Pt       1.40300000       2.43007000      16.87326000       0.00000000       0.10796200       0.34473400
10
Lattice="2.805997698 0.0 0.0 2.805997698 4.860130578 0.0 0.0 0.0 29.657262579" Properties=species:S:1:pos:R:3:forces:R:3 energy=-62.18311311 pbc="T T T"
C        1.40300000       0.00000000      18.49926000       0.00000000       0.07499700      -2.93634200
O        1.40300000       0.00000000      19.65726000       0.00000000      -0.02096500       1.25387300
Pt       0.00000000       0.00000000      10.00000000      -0.00000000       0.03132100      -0.07282600
Pt       1.40300000       2.43007000      10.00000000      -0.00000000      -0.01039400      -0.08136600
Pt       1.40300000       0.81002000      12.29109000       0.00000000      -0.01852500       0.22716600
Pt       2.80600000       3.24009000      12.29109000       0.00000000      -0.03383800      -0.01749700
Pt       2.80600000       1.62004000      14.58218000       0.00000000       0.00321200      -0.31894300
Pt       4.20900000       4.05011000      14.58218000       0.00000000       0.15195800      -0.30046700
Pt       0.00000000       0.00000000      16.87326000       0.00000000      -0.23921300       2.55119600
Pt       1.40300000       2.43007000      16.87326000       0.00000000       0.06144700      -0.30479400
10
Lattice="2.805997698 0.0 0.0 2.805997698 4.860130578 0.0 0.0 0.0 29.428262579" Properties=species:S:1:pos:R:3:forces:R:3 energy=-62.38960614 pbc="T T T"
C        4.20900000       4.05011000      18.27026000      -0.00000000      -0.13040700      -2.75850900
O        4.20900000       4.05011000      19.42826000       0.00000000      -0.05704200       2.67804600
Pt       0.00000000       0.00000000      10.00000000       0.00000000       0.03152900      -0.11287000
Pt       1.40300000       2.43007000      10.00000000       0.00000000      -0.01369400      -0.06484500
Pt       1.40300000       0.81002000      12.29109000       0.00000000      -0.04031100       0.14648500
Pt       2.80600000       3.24009000      12.29109000       0.00000000      -0.00688400      -0.01582100
Pt       2.80600000       1.62004000      14.58218000       0.00000000      -0.08371100      -0.24060700
Pt       4.20900000       4.05011000      14.58218000       0.00000000       0.06349700      -0.65899100
Pt       0.00000000       0.00000000      16.87326000       0.00000000       0.21875500       0.69165800
Pt       1.40300000       2.43007000      16.87326000       0.00000000       0.01826900       0.33545400
